*SPEF "ieee 1481-1999"
*DESIGN "quantizer"
*DATE "11:11:11 Fri 11 11, 1111"
*VENDOR "OpenRCX"
*PROGRAM "Parallel Extraction"
*VERSION "1.0"
*DESIGN_FLOW "NAME_SCOPE LOCAL" "PIN_CAP NONE"
*DIVIDER /
*DELIMITER :
*BUS_DELIMITER []
*T_UNIT 1 NS
*C_UNIT 1 PF
*R_UNIT 1 OHM
*L_UNIT 1 HENRY

*NAME_MAP
*3 clk
*4 data_in[0]
*5 data_in[10]
*6 data_in[11]
*7 data_in[12]
*8 data_in[13]
*9 data_in[14]
*10 data_in[15]
*11 data_in[1]
*12 data_in[2]
*13 data_in[3]
*14 data_in[4]
*15 data_in[5]
*16 data_in[6]
*17 data_in[7]
*18 data_in[8]
*19 data_in[9]
*20 data_out[0]
*21 data_out[1]
*22 data_out[2]
*23 data_out[3]
*24 data_out[4]
*25 data_out[5]
*26 data_out[6]
*27 data_out[7]
*28 overflow
*29 round_mode
*30 rst_n
*31 scale[0]
*32 scale[1]
*33 scale[2]
*34 scale[3]
*35 scale[4]
*36 scale[5]
*37 scale[6]
*38 scale[7]
*39 valid_in
*40 valid_out
*41 _0000_
*42 _0001_
*43 _0002_
*44 _0003_
*45 _0004_
*46 _0005_
*47 _0006_
*48 _0007_
*49 _0008_
*50 _0009_
*51 _0010_
*52 _0011_
*53 _0012_
*54 _0013_
*55 _0014_
*56 _0015_
*57 _0016_
*58 _0017_
*59 _0018_
*60 _0019_
*61 _0020_
*62 _0021_
*63 _0022_
*64 _0023_
*65 _0024_
*66 _0025_
*67 _0026_
*68 _0027_
*69 _0028_
*70 _0029_
*71 _0030_
*72 _0031_
*73 _0032_
*74 _0033_
*75 _0034_
*76 _0035_
*77 _0036_
*78 _0037_
*79 _0038_
*80 _0039_
*81 _0040_
*82 _0041_
*83 _0042_
*84 _0043_
*85 _0044_
*86 _0045_
*87 _0046_
*88 _0047_
*89 _0048_
*90 _0049_
*91 _0050_
*92 _0051_
*93 _0052_
*94 _0053_
*95 _0054_
*96 _0055_
*97 _0056_
*98 _0057_
*99 _0058_
*100 _0059_
*101 _0060_
*102 _0061_
*103 _0062_
*104 _0063_
*105 _0064_
*106 _0065_
*107 _0066_
*108 _0067_
*109 _0068_
*110 _0069_
*111 _0070_
*112 _0071_
*113 _0072_
*114 _0073_
*115 _0074_
*116 _0075_
*117 _0076_
*118 _0077_
*119 _0078_
*120 _0079_
*121 _0080_
*122 _0081_
*123 _0082_
*124 _0083_
*125 _0084_
*126 _0085_
*127 _0086_
*128 _0087_
*129 _0088_
*130 _0089_
*131 _0090_
*132 _0091_
*133 _0092_
*134 _0093_
*135 _0094_
*136 _0095_
*137 _0096_
*138 _0097_
*139 _0098_
*140 _0099_
*141 _0100_
*142 _0101_
*143 _0102_
*144 _0103_
*145 _0104_
*146 _0105_
*147 _0106_
*148 _0107_
*149 _0108_
*150 _0109_
*151 _0110_
*152 _0111_
*153 _0112_
*154 _0113_
*155 _0114_
*156 _0115_
*157 _0116_
*158 _0117_
*159 _0118_
*160 _0119_
*161 _0120_
*162 _0121_
*163 _0122_
*164 _0123_
*165 _0124_
*166 _0125_
*167 _0126_
*168 _0127_
*169 _0128_
*170 _0129_
*171 _0130_
*172 _0131_
*173 _0132_
*174 _0133_
*175 _0134_
*176 _0135_
*177 _0136_
*178 _0137_
*179 _0138_
*180 _0139_
*181 _0140_
*182 _0141_
*183 _0142_
*184 _0143_
*185 _0144_
*186 _0145_
*187 _0146_
*188 _0147_
*189 _0148_
*190 _0149_
*191 _0150_
*192 _0151_
*193 _0152_
*194 _0153_
*195 _0154_
*196 _0155_
*197 _0156_
*198 _0157_
*199 _0158_
*200 _0159_
*201 _0160_
*202 _0161_
*203 _0162_
*204 _0163_
*205 _0164_
*206 _0165_
*207 _0166_
*208 _0167_
*209 _0168_
*210 _0169_
*211 _0170_
*212 _0171_
*213 _0172_
*214 _0173_
*215 _0174_
*216 _0175_
*217 _0176_
*218 _0177_
*219 _0178_
*220 _0179_
*221 _0180_
*222 _0181_
*223 _0182_
*224 _0183_
*225 _0184_
*226 _0185_
*227 _0186_
*228 _0187_
*229 _0188_
*230 _0189_
*231 _0190_
*232 _0191_
*233 _0192_
*234 _0193_
*235 _0194_
*236 _0195_
*237 _0196_
*238 _0197_
*239 _0198_
*240 _0199_
*241 _0200_
*242 _0201_
*243 _0202_
*244 _0203_
*245 _0204_
*246 _0205_
*247 _0206_
*248 _0207_
*249 _0208_
*250 _0209_
*251 _0210_
*252 _0211_
*253 _0212_
*254 _0213_
*255 _0214_
*256 _0215_
*257 _0216_
*258 _0217_
*259 _0218_
*260 _0219_
*261 _0220_
*262 _0221_
*263 _0222_
*264 _0223_
*265 _0224_
*266 _0225_
*267 _0226_
*268 _0227_
*269 _0228_
*270 _0229_
*271 _0230_
*272 _0231_
*273 _0232_
*274 _0233_
*275 _0234_
*276 _0235_
*277 _0236_
*278 _0237_
*279 _0238_
*280 _0239_
*281 _0240_
*282 _0241_
*283 _0242_
*284 _0243_
*285 _0244_
*286 _0245_
*287 _0246_
*288 _0247_
*289 _0248_
*290 _0249_
*291 _0250_
*292 _0251_
*293 _0252_
*294 _0253_
*295 _0254_
*296 _0255_
*297 _0256_
*298 _0257_
*299 _0258_
*300 _0259_
*301 _0260_
*302 _0261_
*303 _0262_
*304 _0263_
*305 _0264_
*306 _0265_
*307 _0266_
*308 _0267_
*309 _0268_
*310 _0269_
*311 _0270_
*312 _0271_
*313 _0272_
*314 _0273_
*315 _0274_
*316 _0275_
*317 _0276_
*318 _0277_
*319 _0278_
*320 _0279_
*321 _0280_
*322 _0281_
*323 _0282_
*324 _0283_
*325 _0284_
*326 _0285_
*327 _0286_
*328 _0287_
*329 _0288_
*330 _0289_
*331 _0290_
*332 _0291_
*333 _0292_
*334 _0293_
*335 _0294_
*336 _0295_
*337 _0296_
*338 _0297_
*339 _0298_
*340 _0299_
*341 _0300_
*342 _0301_
*343 _0302_
*344 _0303_
*345 _0304_
*346 _0305_
*347 _0306_
*348 _0307_
*349 _0308_
*350 _0309_
*351 _0310_
*352 _0311_
*353 _0312_
*354 _0313_
*355 _0314_
*356 _0315_
*357 _0316_
*358 _0317_
*359 _0318_
*360 _0319_
*361 _0320_
*362 _0321_
*363 _0322_
*364 _0323_
*365 _0324_
*366 _0325_
*367 _0326_
*368 _0327_
*369 _0328_
*370 _0329_
*371 _0330_
*372 _0331_
*373 _0332_
*374 _0333_
*375 _0334_
*376 _0335_
*377 _0336_
*378 _0337_
*379 _0338_
*380 _0339_
*381 _0340_
*382 _0341_
*383 _0342_
*384 _0343_
*385 _0344_
*386 _0345_
*387 _0346_
*388 _0347_
*389 _0348_
*390 _0349_
*391 _0350_
*392 _0351_
*393 _0352_
*394 _0353_
*395 _0354_
*396 _0355_
*397 _0356_
*398 _0357_
*399 _0358_
*400 _0359_
*401 _0360_
*402 _0361_
*403 _0362_
*404 _0363_
*405 _0364_
*406 _0365_
*407 _0366_
*408 _0367_
*409 _0368_
*410 _0369_
*411 _0370_
*412 _0371_
*413 _0372_
*414 _0373_
*415 _0374_
*416 _0375_
*417 _0376_
*418 _0377_
*419 _0378_
*420 _0379_
*421 _0380_
*422 _0381_
*423 _0382_
*424 _0383_
*425 _0384_
*426 _0385_
*427 _0386_
*428 _0387_
*429 _0388_
*430 _0389_
*431 _0390_
*432 _0391_
*433 _0392_
*434 _0393_
*435 _0394_
*436 _0395_
*437 _0396_
*438 _0397_
*439 _0398_
*440 _0399_
*441 _0400_
*442 _0401_
*443 _0402_
*444 _0403_
*445 _0404_
*446 _0405_
*447 _0406_
*448 _0407_
*449 _0408_
*450 _0409_
*451 _0410_
*452 _0411_
*453 _0412_
*454 _0413_
*455 _0414_
*456 _0415_
*457 _0416_
*458 _0417_
*459 _0418_
*460 _0419_
*461 _0420_
*462 _0421_
*463 _0422_
*464 _0423_
*465 _0424_
*466 _0425_
*467 _0426_
*468 _0427_
*469 _0428_
*470 _0429_
*471 _0430_
*472 _0431_
*473 _0432_
*474 _0433_
*475 _0434_
*476 _0435_
*477 _0436_
*478 _0437_
*479 _0438_
*480 _0439_
*481 _0440_
*482 _0441_
*483 _0442_
*484 _0443_
*485 _0444_
*486 _0445_
*487 _0446_
*488 _0447_
*489 _0448_
*490 _0449_
*491 _0450_
*492 _0451_
*493 _0452_
*494 _0453_
*495 _0454_
*496 _0455_
*497 _0456_
*498 _0457_
*499 _0458_
*500 _0459_
*501 _0460_
*502 _0461_
*503 _0462_
*504 _0463_
*505 _0464_
*506 _0465_
*507 _0466_
*508 _0467_
*509 _0468_
*510 _0469_
*511 _0470_
*512 _0471_
*513 _0472_
*514 _0473_
*515 _0474_
*516 _0475_
*517 _0476_
*518 _0477_
*519 _0478_
*520 _0479_
*521 _0480_
*522 _0481_
*523 _0482_
*524 _0483_
*525 _0484_
*526 _0485_
*527 _0486_
*528 _0487_
*529 _0488_
*530 _0489_
*531 _0490_
*532 _0491_
*533 _0492_
*534 _0493_
*535 _0494_
*536 _0495_
*537 _0496_
*538 _0497_
*539 _0498_
*540 _0499_
*541 _0500_
*542 _0501_
*543 _0502_
*544 _0503_
*545 _0504_
*546 _0505_
*547 _0506_
*548 _0507_
*549 _0508_
*550 _0509_
*551 _0510_
*552 _0511_
*553 _0512_
*554 _0513_
*555 _0514_
*556 _0515_
*557 _0516_
*558 _0517_
*559 _0518_
*560 _0519_
*561 _0520_
*562 _0521_
*563 _0522_
*564 _0523_
*565 _0524_
*566 _0525_
*567 _0526_
*568 _0527_
*569 _0528_
*570 _0529_
*571 _0530_
*572 _0531_
*573 _0532_
*574 _0533_
*575 _0534_
*576 _0535_
*577 _0536_
*578 _0537_
*579 _0538_
*580 _0539_
*581 _0540_
*582 _0541_
*583 _0542_
*584 _0543_
*585 _0544_
*586 _0545_
*587 _0546_
*588 _0547_
*589 _0548_
*590 _0549_
*591 _0550_
*592 _0551_
*593 _0552_
*594 _0553_
*595 _0554_
*596 _0555_
*597 _0556_
*598 _0557_
*599 _0558_
*600 _0559_
*601 _0560_
*602 _0561_
*603 _0562_
*604 _0563_
*605 _0564_
*606 _0565_
*607 _0566_
*608 _0567_
*609 _0568_
*610 _0569_
*611 _0570_
*612 _0571_
*613 _0572_
*614 _0573_
*615 _0574_
*616 _0575_
*617 _0576_
*618 _0577_
*619 _0578_
*620 _0579_
*621 _0580_
*622 _0581_
*623 _0582_
*624 _0583_
*625 _0584_
*626 _0585_
*627 _0586_
*628 _0587_
*629 _0588_
*630 _0589_
*631 _0590_
*632 _0591_
*633 _0592_
*634 _0593_
*635 _0594_
*636 _0595_
*637 _0596_
*638 _0597_
*639 _0598_
*640 _0599_
*641 _0600_
*642 _0601_
*643 _0602_
*644 _0603_
*645 _0604_
*646 _0605_
*647 _0606_
*648 _0607_
*649 _0608_
*650 _0609_
*651 _0610_
*652 _0611_
*653 _0612_
*654 _0613_
*655 _0614_
*656 _0615_
*657 _0616_
*658 _0617_
*659 _0618_
*660 _0619_
*661 _0620_
*662 _0621_
*663 _0622_
*664 _0623_
*665 _0624_
*666 _0625_
*667 _0626_
*668 _0627_
*669 _0628_
*670 _0629_
*671 _0630_
*672 _0631_
*673 _0632_
*674 _0633_
*675 _0634_
*676 _0635_
*677 _0636_
*678 _0637_
*679 _0638_
*680 _0639_
*681 _0640_
*682 _0641_
*683 _0642_
*684 _0643_
*685 _0644_
*686 _0645_
*687 _0646_
*688 _0647_
*689 _0648_
*690 _0649_
*691 _0650_
*692 _0651_
*693 _0652_
*694 _0653_
*695 _0654_
*696 _0655_
*697 _0656_
*698 _0657_
*699 _0658_
*700 _0659_
*701 _0660_
*702 _0661_
*703 _0662_
*704 _0663_
*705 _0664_
*706 _0665_
*707 _0666_
*708 _0667_
*709 _0668_
*710 _0669_
*711 _0670_
*712 _0671_
*713 _0672_
*714 _0673_
*715 _0674_
*716 _0675_
*717 _0676_
*718 _0677_
*719 _0678_
*720 _0679_
*721 _0680_
*722 _0681_
*723 _0682_
*724 _0683_
*725 _0684_
*726 _0685_
*727 _0686_
*728 _0687_
*729 _0688_
*730 _0689_
*731 _0690_
*732 _0691_
*733 _0692_
*734 _0693_
*735 _0694_
*736 _0695_
*737 _0696_
*738 _0697_
*739 _0698_
*740 _0699_
*741 _0700_
*742 _0701_
*743 _0702_
*744 _0703_
*745 _0704_
*746 _0705_
*747 _0706_
*748 _0707_
*749 _0708_
*750 _0709_
*751 _0710_
*752 _0711_
*753 _0712_
*754 _0713_
*755 _0714_
*756 _0715_
*757 _0716_
*758 _0717_
*759 _0718_
*760 _0719_
*761 _0720_
*762 _0721_
*763 _0722_
*764 _0723_
*765 _0724_
*766 _0725_
*767 _0726_
*768 _0727_
*769 _0728_
*770 _0729_
*771 _0730_
*772 _0731_
*773 _0732_
*774 _0733_
*775 _0734_
*776 _0735_
*777 _0736_
*778 _0737_
*779 _0738_
*780 _0739_
*781 _0740_
*782 _0741_
*783 _0742_
*784 _0743_
*785 _0744_
*786 _0745_
*787 _0746_
*788 _0747_
*789 _0748_
*790 _0749_
*791 _0750_
*792 _0751_
*793 _0752_
*794 _0753_
*795 _0754_
*796 _0755_
*797 _0756_
*798 _0757_
*799 _0758_
*800 _0759_
*801 _0760_
*802 _0761_
*803 _0762_
*804 _0763_
*805 _0764_
*806 _0765_
*807 _0766_
*808 _0767_
*809 _0768_
*810 _0769_
*811 _0770_
*812 _0771_
*813 _0772_
*814 _0773_
*815 _0774_
*816 _0775_
*817 _0776_
*818 _0777_
*819 _0778_
*820 _0779_
*821 _0780_
*822 _0781_
*823 _0782_
*824 _0783_
*825 _0784_
*826 _0785_
*827 _0786_
*828 _0787_
*829 _0788_
*830 _0789_
*831 _0790_
*832 _0791_
*833 _0792_
*834 _0793_
*835 _0794_
*836 _0795_
*837 _0796_
*838 _0797_
*839 _0798_
*840 _0799_
*841 _0800_
*842 _0801_
*843 _0802_
*844 _0803_
*845 _0804_
*846 _0805_
*847 _0806_
*848 _0807_
*849 _0808_
*850 _0809_
*851 _0810_
*852 _0811_
*853 _0812_
*854 _0813_
*855 _0814_
*856 _0815_
*857 _0816_
*858 _0817_
*859 _0818_
*860 _0819_
*861 clknet_0_clk
*862 clknet_1_0__leaf_clk
*863 clknet_1_1__leaf_clk
*864 net1
*865 net10
*866 net11
*867 net12
*868 net13
*869 net14
*870 net15
*871 net16
*872 net17
*873 net18
*874 net19
*875 net2
*876 net20
*877 net21
*878 net22
*879 net23
*880 net24
*881 net25
*882 net26
*883 net27
*884 net28
*885 net29
*886 net3
*887 net30
*888 net31
*889 net32
*890 net33
*891 net34
*892 net35
*893 net36
*894 net37
*895 net38
*896 net39
*897 net4
*898 net40
*899 net41
*900 net42
*901 net43
*902 net44
*903 net45
*904 net46
*905 net47
*906 net48
*907 net49
*908 net5
*909 net50
*910 net51
*911 net52
*912 net53
*913 net54
*914 net55
*915 net56
*916 net57
*917 net58
*918 net59
*919 net6
*920 net60
*921 net61
*922 net62
*923 net63
*924 net64
*925 net65
*926 net66
*927 net67
*928 net68
*929 net69
*930 net7
*931 net70
*932 net71
*933 net72
*934 net73
*935 net74
*936 net75
*937 net76
*938 net77
*939 net78
*940 net79
*941 net8
*942 net80
*943 net81
*944 net82
*945 net83
*946 net84
*947 net85
*948 net86
*949 net87
*950 net88
*951 net89
*952 net9
*953 FILLER_0_0_109
*954 FILLER_0_0_113
*955 FILLER_0_0_119
*956 FILLER_0_0_126
*957 FILLER_0_0_138
*958 FILLER_0_0_141
*959 FILLER_0_0_153
*960 FILLER_0_0_165
*961 FILLER_0_0_173
*962 FILLER_0_0_185
*963 FILLER_0_0_193
*964 FILLER_0_0_197
*965 FILLER_0_0_209
*966 FILLER_0_0_21
*967 FILLER_0_0_221
*968 FILLER_0_0_225
*969 FILLER_0_0_237
*970 FILLER_0_0_249
*971 FILLER_0_0_253
*972 FILLER_0_0_259
*973 FILLER_0_0_27
*974 FILLER_0_0_271
*975 FILLER_0_0_279
*976 FILLER_0_0_281
*977 FILLER_0_0_293
*978 FILLER_0_0_303
*979 FILLER_0_0_307
*980 FILLER_0_0_309
*981 FILLER_0_0_321
*982 FILLER_0_0_333
*983 FILLER_0_0_337
*984 FILLER_0_0_345
*985 FILLER_0_0_357
*986 FILLER_0_0_363
*987 FILLER_0_0_365
*988 FILLER_0_0_377
*989 FILLER_0_0_391
*990 FILLER_0_0_393
*991 FILLER_0_0_41
*992 FILLER_0_0_53
*993 FILLER_0_0_57
*994 FILLER_0_0_69
*995 FILLER_0_0_76
*996 FILLER_0_0_85
*997 FILLER_0_0_9
*998 FILLER_0_0_97
*999 FILLER_0_10_109
*1000 FILLER_0_10_121
*1001 FILLER_0_10_133
*1002 FILLER_0_10_139
*1003 FILLER_0_10_141
*1004 FILLER_0_10_15
*1005 FILLER_0_10_153
*1006 FILLER_0_10_165
*1007 FILLER_0_10_177
*1008 FILLER_0_10_189
*1009 FILLER_0_10_195
*1010 FILLER_0_10_197
*1011 FILLER_0_10_209
*1012 FILLER_0_10_221
*1013 FILLER_0_10_233
*1014 FILLER_0_10_245
*1015 FILLER_0_10_251
*1016 FILLER_0_10_253
*1017 FILLER_0_10_265
*1018 FILLER_0_10_27
*1019 FILLER_0_10_277
*1020 FILLER_0_10_289
*1021 FILLER_0_10_29
*1022 FILLER_0_10_3
*1023 FILLER_0_10_301
*1024 FILLER_0_10_307
*1025 FILLER_0_10_309
*1026 FILLER_0_10_321
*1027 FILLER_0_10_333
*1028 FILLER_0_10_345
*1029 FILLER_0_10_357
*1030 FILLER_0_10_363
*1031 FILLER_0_10_365
*1032 FILLER_0_10_377
*1033 FILLER_0_10_389
*1034 FILLER_0_10_401
*1035 FILLER_0_10_41
*1036 FILLER_0_10_53
*1037 FILLER_0_10_65
*1038 FILLER_0_10_77
*1039 FILLER_0_10_83
*1040 FILLER_0_10_85
*1041 FILLER_0_10_97
*1042 FILLER_0_11_105
*1043 FILLER_0_11_111
*1044 FILLER_0_11_113
*1045 FILLER_0_11_125
*1046 FILLER_0_11_137
*1047 FILLER_0_11_149
*1048 FILLER_0_11_161
*1049 FILLER_0_11_167
*1050 FILLER_0_11_169
*1051 FILLER_0_11_181
*1052 FILLER_0_11_193
*1053 FILLER_0_11_205
*1054 FILLER_0_11_21
*1055 FILLER_0_11_217
*1056 FILLER_0_11_223
*1057 FILLER_0_11_225
*1058 FILLER_0_11_237
*1059 FILLER_0_11_249
*1060 FILLER_0_11_261
*1061 FILLER_0_11_273
*1062 FILLER_0_11_279
*1063 FILLER_0_11_281
*1064 FILLER_0_11_293
*1065 FILLER_0_11_305
*1066 FILLER_0_11_317
*1067 FILLER_0_11_329
*1068 FILLER_0_11_33
*1069 FILLER_0_11_335
*1070 FILLER_0_11_337
*1071 FILLER_0_11_349
*1072 FILLER_0_11_361
*1073 FILLER_0_11_373
*1074 FILLER_0_11_385
*1075 FILLER_0_11_391
*1076 FILLER_0_11_393
*1077 FILLER_0_11_405
*1078 FILLER_0_11_45
*1079 FILLER_0_11_53
*1080 FILLER_0_11_57
*1081 FILLER_0_11_69
*1082 FILLER_0_11_81
*1083 FILLER_0_11_9
*1084 FILLER_0_11_93
*1085 FILLER_0_12_109
*1086 FILLER_0_12_121
*1087 FILLER_0_12_133
*1088 FILLER_0_12_139
*1089 FILLER_0_12_141
*1090 FILLER_0_12_15
*1091 FILLER_0_12_153
*1092 FILLER_0_12_165
*1093 FILLER_0_12_177
*1094 FILLER_0_12_189
*1095 FILLER_0_12_195
*1096 FILLER_0_12_197
*1097 FILLER_0_12_209
*1098 FILLER_0_12_221
*1099 FILLER_0_12_233
*1100 FILLER_0_12_245
*1101 FILLER_0_12_251
*1102 FILLER_0_12_253
*1103 FILLER_0_12_265
*1104 FILLER_0_12_27
*1105 FILLER_0_12_277
*1106 FILLER_0_12_289
*1107 FILLER_0_12_29
*1108 FILLER_0_12_3
*1109 FILLER_0_12_301
*1110 FILLER_0_12_307
*1111 FILLER_0_12_309
*1112 FILLER_0_12_321
*1113 FILLER_0_12_333
*1114 FILLER_0_12_345
*1115 FILLER_0_12_357
*1116 FILLER_0_12_363
*1117 FILLER_0_12_365
*1118 FILLER_0_12_377
*1119 FILLER_0_12_389
*1120 FILLER_0_12_401
*1121 FILLER_0_12_41
*1122 FILLER_0_12_53
*1123 FILLER_0_12_65
*1124 FILLER_0_12_77
*1125 FILLER_0_12_83
*1126 FILLER_0_12_85
*1127 FILLER_0_12_97
*1128 FILLER_0_13_105
*1129 FILLER_0_13_111
*1130 FILLER_0_13_136
*1131 FILLER_0_13_148
*1132 FILLER_0_13_15
*1133 FILLER_0_13_160
*1134 FILLER_0_13_169
*1135 FILLER_0_13_181
*1136 FILLER_0_13_193
*1137 FILLER_0_13_205
*1138 FILLER_0_13_212
*1139 FILLER_0_13_225
*1140 FILLER_0_13_237
*1141 FILLER_0_13_249
*1142 FILLER_0_13_261
*1143 FILLER_0_13_27
*1144 FILLER_0_13_273
*1145 FILLER_0_13_279
*1146 FILLER_0_13_281
*1147 FILLER_0_13_293
*1148 FILLER_0_13_3
*1149 FILLER_0_13_305
*1150 FILLER_0_13_317
*1151 FILLER_0_13_329
*1152 FILLER_0_13_335
*1153 FILLER_0_13_337
*1154 FILLER_0_13_349
*1155 FILLER_0_13_361
*1156 FILLER_0_13_373
*1157 FILLER_0_13_385
*1158 FILLER_0_13_39
*1159 FILLER_0_13_391
*1160 FILLER_0_13_393
*1161 FILLER_0_13_405
*1162 FILLER_0_13_51
*1163 FILLER_0_13_55
*1164 FILLER_0_13_57
*1165 FILLER_0_13_69
*1166 FILLER_0_13_81
*1167 FILLER_0_13_93
*1168 FILLER_0_14_109
*1169 FILLER_0_14_117
*1170 FILLER_0_14_15
*1171 FILLER_0_14_150
*1172 FILLER_0_14_162
*1173 FILLER_0_14_174
*1174 FILLER_0_14_186
*1175 FILLER_0_14_194
*1176 FILLER_0_14_197
*1177 FILLER_0_14_241
*1178 FILLER_0_14_248
*1179 FILLER_0_14_259
*1180 FILLER_0_14_27
*1181 FILLER_0_14_271
*1182 FILLER_0_14_283
*1183 FILLER_0_14_29
*1184 FILLER_0_14_295
*1185 FILLER_0_14_3
*1186 FILLER_0_14_307
*1187 FILLER_0_14_309
*1188 FILLER_0_14_321
*1189 FILLER_0_14_33
*1190 FILLER_0_14_333
*1191 FILLER_0_14_345
*1192 FILLER_0_14_357
*1193 FILLER_0_14_363
*1194 FILLER_0_14_365
*1195 FILLER_0_14_377
*1196 FILLER_0_14_389
*1197 FILLER_0_14_43
*1198 FILLER_0_14_55
*1199 FILLER_0_14_67
*1200 FILLER_0_14_79
*1201 FILLER_0_14_83
*1202 FILLER_0_14_85
*1203 FILLER_0_14_97
*1204 FILLER_0_15_105
*1205 FILLER_0_15_111
*1206 FILLER_0_15_113
*1207 FILLER_0_15_117
*1208 FILLER_0_15_121
*1209 FILLER_0_15_15
*1210 FILLER_0_15_158
*1211 FILLER_0_15_166
*1212 FILLER_0_15_169
*1213 FILLER_0_15_181
*1214 FILLER_0_15_185
*1215 FILLER_0_15_206
*1216 FILLER_0_15_217
*1217 FILLER_0_15_223
*1218 FILLER_0_15_225
*1219 FILLER_0_15_252
*1220 FILLER_0_15_265
*1221 FILLER_0_15_27
*1222 FILLER_0_15_275
*1223 FILLER_0_15_279
*1224 FILLER_0_15_288
*1225 FILLER_0_15_298
*1226 FILLER_0_15_3
*1227 FILLER_0_15_306
*1228 FILLER_0_15_318
*1229 FILLER_0_15_330
*1230 FILLER_0_15_337
*1231 FILLER_0_15_349
*1232 FILLER_0_15_361
*1233 FILLER_0_15_373
*1234 FILLER_0_15_385
*1235 FILLER_0_15_39
*1236 FILLER_0_15_391
*1237 FILLER_0_15_393
*1238 FILLER_0_15_405
*1239 FILLER_0_15_51
*1240 FILLER_0_15_55
*1241 FILLER_0_15_57
*1242 FILLER_0_15_69
*1243 FILLER_0_15_81
*1244 FILLER_0_15_93
*1245 FILLER_0_16_109
*1246 FILLER_0_16_121
*1247 FILLER_0_16_139
*1248 FILLER_0_16_147
*1249 FILLER_0_16_15
*1250 FILLER_0_16_155
*1251 FILLER_0_16_163
*1252 FILLER_0_16_175
*1253 FILLER_0_16_181
*1254 FILLER_0_16_188
*1255 FILLER_0_16_194
*1256 FILLER_0_16_213
*1257 FILLER_0_16_233
*1258 FILLER_0_16_248
*1259 FILLER_0_16_258
*1260 FILLER_0_16_27
*1261 FILLER_0_16_287
*1262 FILLER_0_16_29
*1263 FILLER_0_16_3
*1264 FILLER_0_16_306
*1265 FILLER_0_16_309
*1266 FILLER_0_16_321
*1267 FILLER_0_16_333
*1268 FILLER_0_16_345
*1269 FILLER_0_16_357
*1270 FILLER_0_16_363
*1271 FILLER_0_16_365
*1272 FILLER_0_16_377
*1273 FILLER_0_16_389
*1274 FILLER_0_16_401
*1275 FILLER_0_16_41
*1276 FILLER_0_16_53
*1277 FILLER_0_16_65
*1278 FILLER_0_16_77
*1279 FILLER_0_16_83
*1280 FILLER_0_16_85
*1281 FILLER_0_16_97
*1282 FILLER_0_17_105
*1283 FILLER_0_17_111
*1284 FILLER_0_17_133
*1285 FILLER_0_17_145
*1286 FILLER_0_17_15
*1287 FILLER_0_17_165
*1288 FILLER_0_17_174
*1289 FILLER_0_17_198
*1290 FILLER_0_17_258
*1291 FILLER_0_17_264
*1292 FILLER_0_17_27
*1293 FILLER_0_17_276
*1294 FILLER_0_17_298
*1295 FILLER_0_17_3
*1296 FILLER_0_17_310
*1297 FILLER_0_17_322
*1298 FILLER_0_17_334
*1299 FILLER_0_17_337
*1300 FILLER_0_17_349
*1301 FILLER_0_17_361
*1302 FILLER_0_17_373
*1303 FILLER_0_17_385
*1304 FILLER_0_17_39
*1305 FILLER_0_17_391
*1306 FILLER_0_17_393
*1307 FILLER_0_17_405
*1308 FILLER_0_17_51
*1309 FILLER_0_17_55
*1310 FILLER_0_17_57
*1311 FILLER_0_17_69
*1312 FILLER_0_17_81
*1313 FILLER_0_17_93
*1314 FILLER_0_18_109
*1315 FILLER_0_18_113
*1316 FILLER_0_18_117
*1317 FILLER_0_18_127
*1318 FILLER_0_18_139
*1319 FILLER_0_18_15
*1320 FILLER_0_18_154
*1321 FILLER_0_18_160
*1322 FILLER_0_18_200
*1323 FILLER_0_18_209
*1324 FILLER_0_18_221
*1325 FILLER_0_18_249
*1326 FILLER_0_18_253
*1327 FILLER_0_18_262
*1328 FILLER_0_18_27
*1329 FILLER_0_18_274
*1330 FILLER_0_18_286
*1331 FILLER_0_18_29
*1332 FILLER_0_18_299
*1333 FILLER_0_18_3
*1334 FILLER_0_18_318
*1335 FILLER_0_18_326
*1336 FILLER_0_18_337
*1337 FILLER_0_18_349
*1338 FILLER_0_18_361
*1339 FILLER_0_18_365
*1340 FILLER_0_18_377
*1341 FILLER_0_18_389
*1342 FILLER_0_18_401
*1343 FILLER_0_18_41
*1344 FILLER_0_18_53
*1345 FILLER_0_18_65
*1346 FILLER_0_18_77
*1347 FILLER_0_18_83
*1348 FILLER_0_18_85
*1349 FILLER_0_18_97
*1350 FILLER_0_19_105
*1351 FILLER_0_19_111
*1352 FILLER_0_19_113
*1353 FILLER_0_19_125
*1354 FILLER_0_19_15
*1355 FILLER_0_19_158
*1356 FILLER_0_19_169
*1357 FILLER_0_19_175
*1358 FILLER_0_19_189
*1359 FILLER_0_19_193
*1360 FILLER_0_19_208
*1361 FILLER_0_19_212
*1362 FILLER_0_19_220
*1363 FILLER_0_19_225
*1364 FILLER_0_19_236
*1365 FILLER_0_19_255
*1366 FILLER_0_19_263
*1367 FILLER_0_19_27
*1368 FILLER_0_19_272
*1369 FILLER_0_19_281
*1370 FILLER_0_19_285
*1371 FILLER_0_19_293
*1372 FILLER_0_19_3
*1373 FILLER_0_19_309
*1374 FILLER_0_19_329
*1375 FILLER_0_19_335
*1376 FILLER_0_19_337
*1377 FILLER_0_19_349
*1378 FILLER_0_19_361
*1379 FILLER_0_19_373
*1380 FILLER_0_19_385
*1381 FILLER_0_19_39
*1382 FILLER_0_19_391
*1383 FILLER_0_19_393
*1384 FILLER_0_19_405
*1385 FILLER_0_19_51
*1386 FILLER_0_19_55
*1387 FILLER_0_19_57
*1388 FILLER_0_19_69
*1389 FILLER_0_19_81
*1390 FILLER_0_19_93
*1391 FILLER_0_1_105
*1392 FILLER_0_1_111
*1393 FILLER_0_1_113
*1394 FILLER_0_1_125
*1395 FILLER_0_1_137
*1396 FILLER_0_1_149
*1397 FILLER_0_1_15
*1398 FILLER_0_1_161
*1399 FILLER_0_1_167
*1400 FILLER_0_1_169
*1401 FILLER_0_1_181
*1402 FILLER_0_1_193
*1403 FILLER_0_1_205
*1404 FILLER_0_1_217
*1405 FILLER_0_1_223
*1406 FILLER_0_1_225
*1407 FILLER_0_1_237
*1408 FILLER_0_1_249
*1409 FILLER_0_1_261
*1410 FILLER_0_1_27
*1411 FILLER_0_1_273
*1412 FILLER_0_1_279
*1413 FILLER_0_1_281
*1414 FILLER_0_1_293
*1415 FILLER_0_1_3
*1416 FILLER_0_1_305
*1417 FILLER_0_1_317
*1418 FILLER_0_1_329
*1419 FILLER_0_1_335
*1420 FILLER_0_1_337
*1421 FILLER_0_1_349
*1422 FILLER_0_1_361
*1423 FILLER_0_1_373
*1424 FILLER_0_1_385
*1425 FILLER_0_1_39
*1426 FILLER_0_1_391
*1427 FILLER_0_1_393
*1428 FILLER_0_1_405
*1429 FILLER_0_1_51
*1430 FILLER_0_1_55
*1431 FILLER_0_1_57
*1432 FILLER_0_1_69
*1433 FILLER_0_1_81
*1434 FILLER_0_1_93
*1435 FILLER_0_20_109
*1436 FILLER_0_20_117
*1437 FILLER_0_20_122
*1438 FILLER_0_20_132
*1439 FILLER_0_20_154
*1440 FILLER_0_20_174
*1441 FILLER_0_20_19
*1442 FILLER_0_20_194
*1443 FILLER_0_20_227
*1444 FILLER_0_20_236
*1445 FILLER_0_20_244
*1446 FILLER_0_20_251
*1447 FILLER_0_20_253
*1448 FILLER_0_20_259
*1449 FILLER_0_20_267
*1450 FILLER_0_20_27
*1451 FILLER_0_20_281
*1452 FILLER_0_20_29
*1453 FILLER_0_20_295
*1454 FILLER_0_20_307
*1455 FILLER_0_20_309
*1456 FILLER_0_20_313
*1457 FILLER_0_20_328
*1458 FILLER_0_20_340
*1459 FILLER_0_20_352
*1460 FILLER_0_20_365
*1461 FILLER_0_20_377
*1462 FILLER_0_20_389
*1463 FILLER_0_20_401
*1464 FILLER_0_20_41
*1465 FILLER_0_20_53
*1466 FILLER_0_20_65
*1467 FILLER_0_20_7
*1468 FILLER_0_20_77
*1469 FILLER_0_20_83
*1470 FILLER_0_20_85
*1471 FILLER_0_20_97
*1472 FILLER_0_21_105
*1473 FILLER_0_21_111
*1474 FILLER_0_21_134
*1475 FILLER_0_21_144
*1476 FILLER_0_21_15
*1477 FILLER_0_21_169
*1478 FILLER_0_21_189
*1479 FILLER_0_21_196
*1480 FILLER_0_21_210
*1481 FILLER_0_21_221
*1482 FILLER_0_21_257
*1483 FILLER_0_21_27
*1484 FILLER_0_21_272
*1485 FILLER_0_21_285
*1486 FILLER_0_21_297
*1487 FILLER_0_21_3
*1488 FILLER_0_21_333
*1489 FILLER_0_21_337
*1490 FILLER_0_21_349
*1491 FILLER_0_21_361
*1492 FILLER_0_21_373
*1493 FILLER_0_21_385
*1494 FILLER_0_21_39
*1495 FILLER_0_21_391
*1496 FILLER_0_21_393
*1497 FILLER_0_21_51
*1498 FILLER_0_21_55
*1499 FILLER_0_21_57
*1500 FILLER_0_21_69
*1501 FILLER_0_21_81
*1502 FILLER_0_21_93
*1503 FILLER_0_22_109
*1504 FILLER_0_22_121
*1505 FILLER_0_22_137
*1506 FILLER_0_22_141
*1507 FILLER_0_22_15
*1508 FILLER_0_22_153
*1509 FILLER_0_22_165
*1510 FILLER_0_22_183
*1511 FILLER_0_22_188
*1512 FILLER_0_22_205
*1513 FILLER_0_22_209
*1514 FILLER_0_22_213
*1515 FILLER_0_22_240
*1516 FILLER_0_22_268
*1517 FILLER_0_22_27
*1518 FILLER_0_22_273
*1519 FILLER_0_22_285
*1520 FILLER_0_22_29
*1521 FILLER_0_22_291
*1522 FILLER_0_22_3
*1523 FILLER_0_22_305
*1524 FILLER_0_22_314
*1525 FILLER_0_22_318
*1526 FILLER_0_22_327
*1527 FILLER_0_22_331
*1528 FILLER_0_22_343
*1529 FILLER_0_22_355
*1530 FILLER_0_22_363
*1531 FILLER_0_22_365
*1532 FILLER_0_22_377
*1533 FILLER_0_22_389
*1534 FILLER_0_22_401
*1535 FILLER_0_22_41
*1536 FILLER_0_22_53
*1537 FILLER_0_22_65
*1538 FILLER_0_22_77
*1539 FILLER_0_22_83
*1540 FILLER_0_22_85
*1541 FILLER_0_22_97
*1542 FILLER_0_23_105
*1543 FILLER_0_23_111
*1544 FILLER_0_23_113
*1545 FILLER_0_23_125
*1546 FILLER_0_23_129
*1547 FILLER_0_23_143
*1548 FILLER_0_23_147
*1549 FILLER_0_23_15
*1550 FILLER_0_23_159
*1551 FILLER_0_23_167
*1552 FILLER_0_23_189
*1553 FILLER_0_23_201
*1554 FILLER_0_23_205
*1555 FILLER_0_23_216
*1556 FILLER_0_23_225
*1557 FILLER_0_23_232
*1558 FILLER_0_23_244
*1559 FILLER_0_23_249
*1560 FILLER_0_23_261
*1561 FILLER_0_23_267
*1562 FILLER_0_23_27
*1563 FILLER_0_23_275
*1564 FILLER_0_23_279
*1565 FILLER_0_23_281
*1566 FILLER_0_23_293
*1567 FILLER_0_23_299
*1568 FILLER_0_23_3
*1569 FILLER_0_23_312
*1570 FILLER_0_23_320
*1571 FILLER_0_23_337
*1572 FILLER_0_23_349
*1573 FILLER_0_23_361
*1574 FILLER_0_23_373
*1575 FILLER_0_23_385
*1576 FILLER_0_23_39
*1577 FILLER_0_23_391
*1578 FILLER_0_23_393
*1579 FILLER_0_23_405
*1580 FILLER_0_23_51
*1581 FILLER_0_23_55
*1582 FILLER_0_23_57
*1583 FILLER_0_23_69
*1584 FILLER_0_23_81
*1585 FILLER_0_23_93
*1586 FILLER_0_24_109
*1587 FILLER_0_24_121
*1588 FILLER_0_24_141
*1589 FILLER_0_24_15
*1590 FILLER_0_24_164
*1591 FILLER_0_24_186
*1592 FILLER_0_24_194
*1593 FILLER_0_24_197
*1594 FILLER_0_24_213
*1595 FILLER_0_24_229
*1596 FILLER_0_24_237
*1597 FILLER_0_24_249
*1598 FILLER_0_24_264
*1599 FILLER_0_24_27
*1600 FILLER_0_24_276
*1601 FILLER_0_24_289
*1602 FILLER_0_24_29
*1603 FILLER_0_24_296
*1604 FILLER_0_24_3
*1605 FILLER_0_24_309
*1606 FILLER_0_24_317
*1607 FILLER_0_24_328
*1608 FILLER_0_24_339
*1609 FILLER_0_24_351
*1610 FILLER_0_24_363
*1611 FILLER_0_24_365
*1612 FILLER_0_24_377
*1613 FILLER_0_24_389
*1614 FILLER_0_24_401
*1615 FILLER_0_24_41
*1616 FILLER_0_24_53
*1617 FILLER_0_24_65
*1618 FILLER_0_24_77
*1619 FILLER_0_24_83
*1620 FILLER_0_24_85
*1621 FILLER_0_24_97
*1622 FILLER_0_25_105
*1623 FILLER_0_25_111
*1624 FILLER_0_25_113
*1625 FILLER_0_25_117
*1626 FILLER_0_25_129
*1627 FILLER_0_25_138
*1628 FILLER_0_25_15
*1629 FILLER_0_25_159
*1630 FILLER_0_25_167
*1631 FILLER_0_25_169
*1632 FILLER_0_25_184
*1633 FILLER_0_25_210
*1634 FILLER_0_25_222
*1635 FILLER_0_25_225
*1636 FILLER_0_25_231
*1637 FILLER_0_25_255
*1638 FILLER_0_25_266
*1639 FILLER_0_25_27
*1640 FILLER_0_25_270
*1641 FILLER_0_25_277
*1642 FILLER_0_25_281
*1643 FILLER_0_25_285
*1644 FILLER_0_25_3
*1645 FILLER_0_25_304
*1646 FILLER_0_25_316
*1647 FILLER_0_25_324
*1648 FILLER_0_25_337
*1649 FILLER_0_25_345
*1650 FILLER_0_25_357
*1651 FILLER_0_25_369
*1652 FILLER_0_25_381
*1653 FILLER_0_25_389
*1654 FILLER_0_25_39
*1655 FILLER_0_25_393
*1656 FILLER_0_25_405
*1657 FILLER_0_25_51
*1658 FILLER_0_25_55
*1659 FILLER_0_25_57
*1660 FILLER_0_25_69
*1661 FILLER_0_25_81
*1662 FILLER_0_25_93
*1663 FILLER_0_26_103
*1664 FILLER_0_26_127
*1665 FILLER_0_26_139
*1666 FILLER_0_26_146
*1667 FILLER_0_26_15
*1668 FILLER_0_26_153
*1669 FILLER_0_26_165
*1670 FILLER_0_26_169
*1671 FILLER_0_26_181
*1672 FILLER_0_26_229
*1673 FILLER_0_26_258
*1674 FILLER_0_26_27
*1675 FILLER_0_26_286
*1676 FILLER_0_26_29
*1677 FILLER_0_26_291
*1678 FILLER_0_26_3
*1679 FILLER_0_26_306
*1680 FILLER_0_26_319
*1681 FILLER_0_26_338
*1682 FILLER_0_26_350
*1683 FILLER_0_26_362
*1684 FILLER_0_26_365
*1685 FILLER_0_26_377
*1686 FILLER_0_26_389
*1687 FILLER_0_26_401
*1688 FILLER_0_26_41
*1689 FILLER_0_26_53
*1690 FILLER_0_26_65
*1691 FILLER_0_26_77
*1692 FILLER_0_26_83
*1693 FILLER_0_26_85
*1694 FILLER_0_26_97
*1695 FILLER_0_27_105
*1696 FILLER_0_27_121
*1697 FILLER_0_27_128
*1698 FILLER_0_27_163
*1699 FILLER_0_27_183
*1700 FILLER_0_27_189
*1701 FILLER_0_27_19
*1702 FILLER_0_27_193
*1703 FILLER_0_27_200
*1704 FILLER_0_27_212
*1705 FILLER_0_27_220
*1706 FILLER_0_27_231
*1707 FILLER_0_27_239
*1708 FILLER_0_27_249
*1709 FILLER_0_27_267
*1710 FILLER_0_27_272
*1711 FILLER_0_27_277
*1712 FILLER_0_27_281
*1713 FILLER_0_27_293
*1714 FILLER_0_27_305
*1715 FILLER_0_27_31
*1716 FILLER_0_27_313
*1717 FILLER_0_27_323
*1718 FILLER_0_27_335
*1719 FILLER_0_27_347
*1720 FILLER_0_27_359
*1721 FILLER_0_27_371
*1722 FILLER_0_27_383
*1723 FILLER_0_27_391
*1724 FILLER_0_27_393
*1725 FILLER_0_27_405
*1726 FILLER_0_27_43
*1727 FILLER_0_27_55
*1728 FILLER_0_27_57
*1729 FILLER_0_27_69
*1730 FILLER_0_27_7
*1731 FILLER_0_27_81
*1732 FILLER_0_27_93
*1733 FILLER_0_28_111
*1734 FILLER_0_28_130
*1735 FILLER_0_28_138
*1736 FILLER_0_28_141
*1737 FILLER_0_28_15
*1738 FILLER_0_28_153
*1739 FILLER_0_28_157
*1740 FILLER_0_28_165
*1741 FILLER_0_28_177
*1742 FILLER_0_28_189
*1743 FILLER_0_28_195
*1744 FILLER_0_28_197
*1745 FILLER_0_28_206
*1746 FILLER_0_28_212
*1747 FILLER_0_28_223
*1748 FILLER_0_28_235
*1749 FILLER_0_28_250
*1750 FILLER_0_28_253
*1751 FILLER_0_28_265
*1752 FILLER_0_28_27
*1753 FILLER_0_28_277
*1754 FILLER_0_28_285
*1755 FILLER_0_28_29
*1756 FILLER_0_28_299
*1757 FILLER_0_28_3
*1758 FILLER_0_28_307
*1759 FILLER_0_28_309
*1760 FILLER_0_28_349
*1761 FILLER_0_28_361
*1762 FILLER_0_28_365
*1763 FILLER_0_28_377
*1764 FILLER_0_28_389
*1765 FILLER_0_28_401
*1766 FILLER_0_28_41
*1767 FILLER_0_28_53
*1768 FILLER_0_28_65
*1769 FILLER_0_28_77
*1770 FILLER_0_28_83
*1771 FILLER_0_28_85
*1772 FILLER_0_28_97
*1773 FILLER_0_29_101
*1774 FILLER_0_29_127
*1775 FILLER_0_29_131
*1776 FILLER_0_29_135
*1777 FILLER_0_29_15
*1778 FILLER_0_29_154
*1779 FILLER_0_29_158
*1780 FILLER_0_29_165
*1781 FILLER_0_29_169
*1782 FILLER_0_29_190
*1783 FILLER_0_29_209
*1784 FILLER_0_29_223
*1785 FILLER_0_29_234
*1786 FILLER_0_29_247
*1787 FILLER_0_29_264
*1788 FILLER_0_29_27
*1789 FILLER_0_29_276
*1790 FILLER_0_29_289
*1791 FILLER_0_29_297
*1792 FILLER_0_29_3
*1793 FILLER_0_29_317
*1794 FILLER_0_29_329
*1795 FILLER_0_29_335
*1796 FILLER_0_29_337
*1797 FILLER_0_29_351
*1798 FILLER_0_29_363
*1799 FILLER_0_29_375
*1800 FILLER_0_29_387
*1801 FILLER_0_29_39
*1802 FILLER_0_29_391